45
Coordinates from ORCA-job Actos E -156.525787116418
  N       4.557384     -1.422902      3.352263
  C       5.422775     -1.243041      4.372005
  C       5.148418     -1.479493      5.740405
  C       3.829668     -1.930628      5.973962
  C       2.913391     -2.126512      4.930575
  C       3.290399     -1.876178      3.592026
  C       6.011245     -1.191026      6.948929
  C       7.550627     -1.210588      7.059671
  C       2.436236     -2.248028      2.378316
  C       0.916908     -1.966718      2.273371
  O       0.503777     -2.606549      1.032639
  C      -0.784265     -2.507419      0.514291
  C      -1.029623     -3.345138     -0.602864
  C      -2.261269     -3.353824     -1.267708
  C      -3.323730     -2.529177     -0.874505
  C      -3.065040     -1.700886      0.238718
  C      -1.840171     -1.679618      0.921047
  C      -4.726782     -2.496618     -1.449182
  C      -5.126472     -3.058346     -2.824668
  C      -5.645950     -4.551440     -2.741534
  N      -6.755157     -4.673393     -3.539533
  C      -7.163550     -3.362263     -4.110782
  S      -6.334851     -2.314220     -3.720907
  O      -5.075984     -5.427628     -2.079237
  O      -8.256887     -3.338928     -4.924667
  H       6.420353     -0.878089      4.062914
  H       3.508039     -2.137156      7.007481
  H       1.899896     -2.486211      5.155778
  H       5.700515     -0.156090      7.276280
  H       5.656415     -1.903719      7.748583
  H       7.822453     -0.921205      8.101199
  H       7.947708     -2.229198      6.844104
  H       8.007362     -0.488077      6.344614
  H       2.894961     -1.775225      1.465146
  H       2.562134     -3.362216      2.266291
  H       0.350494     -2.427011      3.119811
  H       0.705834     -0.871293      2.210779
  H      -0.225219     -4.013807     -0.945206
  H      -2.401232     -4.059930     -2.102494
  H      -3.868565     -1.040183      0.603310
  H      -1.714147     -1.011598      1.784735
  H      -5.371573     -3.016512     -0.685135
  H      -5.023046     -1.407233     -1.471287
  H      -4.147868     -3.164765     -3.380429
  H      -7.283092     -5.493965     -3.683329
  