45
Coordinates from ORCA-job Actos E -156.445071406582
  N       2.967342     -1.216880      2.245779
  C       2.320510     -1.626186      3.340575
  C       1.634624     -2.841684      3.453821
  C       1.649845     -3.675671      2.332724
  C       2.320984     -3.267086      1.183840
  C       2.965341     -2.027956      1.173970
  C       0.963780     -3.242897      4.744619
  C       1.950413     -3.882955      5.735365
  C       3.624268     -1.488670     -0.070670
  C       2.756815     -0.461024     -0.807802
  O       1.580194     -1.052057     -1.362086
  C       0.403201     -1.063871     -0.669726
  C      -0.671921     -1.666256     -1.338311
  C      -1.922495     -1.736845     -0.738178
  C      -2.138123     -1.213775      0.545824
  C      -1.057852     -0.612361      1.195525
  C       0.201699     -0.524864      0.605361
  C      -3.483880     -1.324630      1.218094
  C      -3.730940     -2.674630      1.932261
  C      -3.678057     -3.832417      0.934482
  N      -2.714895     -4.756077      1.293718
  C      -1.982160     -4.568444      2.459702
  S      -2.512182     -3.058384      3.260146
  O      -4.379624     -3.917277     -0.050612
  O      -1.131565     -5.325195      2.867759
  H       2.339347     -0.939168      4.187245
  H       1.123073     -4.624521      2.359653
  H       2.328674     -3.888970      0.293698
  H       0.503120     -2.361167      5.208088
  H       0.158723     -3.951986      4.528015
  H       1.444308     -4.164802      6.665393
  H       2.400267     -4.784415      5.305047
  H       2.763115     -3.191025      5.983625
  H       4.562813     -0.992999      0.203779
  H       3.858855     -2.303570     -0.763963
  H       2.507673      0.379552     -0.153219
  H       3.305857     -0.068831     -1.669021
  H      -0.502908     -2.065887     -2.333030
  H      -2.745047     -2.202064     -1.273718
  H      -1.193595     -0.203782      2.193417
  H       1.012284     -0.075463      1.162095
  H      -3.612067     -0.524307      1.954406
  H      -4.292051     -1.222986      0.484781
  H      -4.731098     -2.669691      2.376281
  H      -2.534144     -5.569870      0.717023
  