#p b3lyp/6-31+G* NMR geom=connectivity

template file

  0  1
C     0.000000    1.397000    0.000000
C     1.209000    0.698000    0.000000
C     1.209000   -0.698000    0.000000
C     0.000000   -1.397000    0.000000
C    -1.209000   -0.698000    0.000000
C    -1.209000    0.698000    0.000000
H     0.000000    2.483000    0.000000
H     2.151000    1.242000    0.000000
H     2.151000   -1.242000    0.000000
H     0.000000   -2.483000    0.000000
H    -2.151000   -1.242000    0.000000
H    -2.151000    1.242000    0.000000
Bq    0.000000    0.000000    0.000000
Bq    0.000000    0.000000    0.050251
Bq    0.000000    0.000000    0.100503
Bq    0.000000    0.000000    0.150754
Bq    0.000000    0.000000    0.201005
Bq    0.000000    0.000000    0.251256
Bq    0.000000    0.000000    0.301508
Bq    0.000000    0.000000    0.351759
Bq    0.000000    0.000000    0.402010
Bq    0.000000    0.000000    0.452261
Bq    0.000000    0.000000    0.502513
Bq    0.000000    0.000000    0.552764
Bq    0.000000    0.000000    0.603015
Bq    0.000000    0.000000    0.653266
Bq    0.000000    0.000000    0.703518
Bq    0.000000    0.000000    0.753769
Bq    0.000000    0.000000    0.804020
Bq    0.000000    0.000000    0.854271
Bq    0.000000    0.000000    0.904523
Bq    0.000000    0.000000    0.954774
Bq    0.000000    0.000000    1.005025
Bq    0.000000    0.000000    1.055276
Bq    0.000000    0.000000    1.105528
Bq    0.000000    0.000000    1.155779
Bq    0.000000    0.000000    1.206030
Bq    0.000000    0.000000    1.256281
Bq    0.000000    0.000000    1.306533
Bq    0.000000    0.000000    1.356784
Bq    0.000000    0.000000    1.407035
Bq    0.000000    0.000000    1.457286
Bq    0.000000    0.000000    1.507538
Bq    0.000000    0.000000    1.557789
Bq    0.000000    0.000000    1.608040
Bq    0.000000    0.000000    1.658291
Bq    0.000000    0.000000    1.708543
Bq    0.000000    0.000000    1.758794
Bq    0.000000    0.000000    1.809045
Bq    0.000000    0.000000    1.859296
Bq    0.000000    0.000000    1.909548
Bq    0.000000    0.000000    1.959799
Bq    0.000000    0.000000    2.010050
Bq    0.000000    0.000000    2.060302
Bq    0.000000    0.000000    2.110553
Bq    0.000000    0.000000    2.160804
Bq    0.000000    0.000000    2.211055
Bq    0.000000    0.000000    2.261307
Bq    0.000000    0.000000    2.311558
Bq    0.000000    0.000000    2.361809
Bq    0.000000    0.000000    2.412060
Bq    0.000000    0.000000    2.462312
Bq    0.000000    0.000000    2.512563
Bq    0.000000    0.000000    2.562814
Bq    0.000000    0.000000    2.613065
Bq    0.000000    0.000000    2.663317
Bq    0.000000    0.000000    2.713568
Bq    0.000000    0.000000    2.763819
Bq    0.000000    0.000000    2.814070
Bq    0.000000    0.000000    2.864322
Bq    0.000000    0.000000    2.914573
Bq    0.000000    0.000000    2.964824
Bq    0.000000    0.000000    3.015075
Bq    0.000000    0.000000    3.065327
Bq    0.000000    0.000000    3.115578
Bq    0.000000    0.000000    3.165829
Bq    0.000000    0.000000    3.216080
Bq    0.000000    0.000000    3.266332
Bq    0.000000    0.000000    3.316583
Bq    0.000000    0.000000    3.366834
Bq    0.000000    0.000000    3.417085
Bq    0.000000    0.000000    3.467337
Bq    0.000000    0.000000    3.517588
Bq    0.000000    0.000000    3.567839
Bq    0.000000    0.000000    3.618090
Bq    0.000000    0.000000    3.668342
Bq    0.000000    0.000000    3.718593
Bq    0.000000    0.000000    3.768844
Bq    0.000000    0.000000    3.819095
Bq    0.000000    0.000000    3.869347
Bq    0.000000    0.000000    3.919598
Bq    0.000000    0.000000    3.969849
Bq    0.000000    0.000000    4.020101
Bq    0.000000    0.000000    4.070352
Bq    0.000000    0.000000    4.120603
Bq    0.000000    0.000000    4.170854
Bq    0.000000    0.000000    4.221106
Bq    0.000000    0.000000    4.271357
Bq    0.000000    0.000000    4.321608
Bq    0.000000    0.000000    4.371859
Bq    0.000000    0.000000    4.422111
Bq    0.000000    0.000000    4.472362
Bq    0.000000    0.000000    4.522613
Bq    0.000000    0.000000    4.572864
Bq    0.000000    0.000000    4.623116
Bq    0.000000    0.000000    4.673367
Bq    0.000000    0.000000    4.723618
Bq    0.000000    0.000000    4.773869
Bq    0.000000    0.000000    4.824121
Bq    0.000000    0.000000    4.874372
Bq    0.000000    0.000000    4.924623
Bq    0.000000    0.000000    4.974874
Bq    0.000000    0.000000    5.025126
Bq    0.000000    0.000000    5.075377
Bq    0.000000    0.000000    5.125628
Bq    0.000000    0.000000    5.175879
Bq    0.000000    0.000000    5.226131
Bq    0.000000    0.000000    5.276382
Bq    0.000000    0.000000    5.326633
Bq    0.000000    0.000000    5.376884
Bq    0.000000    0.000000    5.427136
Bq    0.000000    0.000000    5.477387
Bq    0.000000    0.000000    5.527638
Bq    0.000000    0.000000    5.577889
Bq    0.000000    0.000000    5.628141
Bq    0.000000    0.000000    5.678392
Bq    0.000000    0.000000    5.728643
Bq    0.000000    0.000000    5.778894
Bq    0.000000    0.000000    5.829146
Bq    0.000000    0.000000    5.879397
Bq    0.000000    0.000000    5.929648
Bq    0.000000    0.000000    5.979899
Bq    0.000000    0.000000    6.030151
Bq    0.000000    0.000000    6.080402
Bq    0.000000    0.000000    6.130653
Bq    0.000000    0.000000    6.180905
Bq    0.000000    0.000000    6.231156
Bq    0.000000    0.000000    6.281407
Bq    0.000000    0.000000    6.331658
Bq    0.000000    0.000000    6.381910
Bq    0.000000    0.000000    6.432161
Bq    0.000000    0.000000    6.482412
Bq    0.000000    0.000000    6.532663
Bq    0.000000    0.000000    6.582915
Bq    0.000000    0.000000    6.633166
Bq    0.000000    0.000000    6.683417
Bq    0.000000    0.000000    6.733668
Bq    0.000000    0.000000    6.783920
Bq    0.000000    0.000000    6.834171
Bq    0.000000    0.000000    6.884422
Bq    0.000000    0.000000    6.934673
Bq    0.000000    0.000000    6.984925
Bq    0.000000    0.000000    7.035176
Bq    0.000000    0.000000    7.085427
Bq    0.000000    0.000000    7.135678
Bq    0.000000    0.000000    7.185930
Bq    0.000000    0.000000    7.236181
Bq    0.000000    0.000000    7.286432
Bq    0.000000    0.000000    7.336683
Bq    0.000000    0.000000    7.386935
Bq    0.000000    0.000000    7.437186
Bq    0.000000    0.000000    7.487437
Bq    0.000000    0.000000    7.537688
Bq    0.000000    0.000000    7.587940
Bq    0.000000    0.000000    7.638191
Bq    0.000000    0.000000    7.688442
Bq    0.000000    0.000000    7.738693
Bq    0.000000    0.000000    7.788945
Bq    0.000000    0.000000    7.839196
Bq    0.000000    0.000000    7.889447
Bq    0.000000    0.000000    7.939698
Bq    0.000000    0.000000    7.989950
Bq    0.000000    0.000000    8.040201
Bq    0.000000    0.000000    8.090452
Bq    0.000000    0.000000    8.140704
Bq    0.000000    0.000000    8.190955
Bq    0.000000    0.000000    8.241206
Bq    0.000000    0.000000    8.291457
Bq    0.000000    0.000000    8.341709
Bq    0.000000    0.000000    8.391960
Bq    0.000000    0.000000    8.442211
Bq    0.000000    0.000000    8.492462
Bq    0.000000    0.000000    8.542714
Bq    0.000000    0.000000    8.592965
Bq    0.000000    0.000000    8.643216
Bq    0.000000    0.000000    8.693467
Bq    0.000000    0.000000    8.743719
Bq    0.000000    0.000000    8.793970
Bq    0.000000    0.000000    8.844221
Bq    0.000000    0.000000    8.894472
Bq    0.000000    0.000000    8.944724
Bq    0.000000    0.000000    8.994975
Bq    0.000000    0.000000    9.045226
Bq    0.000000    0.000000    9.095477
Bq    0.000000    0.000000    9.145729
Bq    0.000000    0.000000    9.195980
Bq    0.000000    0.000000    9.246231
Bq    0.000000    0.000000    9.296482
Bq    0.000000    0.000000    9.346734
Bq    0.000000    0.000000    9.396985
Bq    0.000000    0.000000    9.447236
Bq    0.000000    0.000000    9.497487
Bq    0.000000    0.000000    9.547739
Bq    0.000000    0.000000    9.597990
Bq    0.000000    0.000000    9.648241
Bq    0.000000    0.000000    9.698492
Bq    0.000000    0.000000    9.748744
Bq    0.000000    0.000000    9.798995
Bq    0.000000    0.000000    9.849246
Bq    0.000000    0.000000    9.899497
Bq    0.000000    0.000000    9.949749
Bq    0.000000    0.000000   10.000000
 
     1
     2
     3
     4
     5
     6
     7
     8
     9
    10
    11
    12
    13
    14
    15
    16
    17
    18
    19
    20
    21
    22
    23
    24
    25
    26
    27
    28
    29
    30
    31
    32
    33
    34
    35
    36
    37
    38
    39
    40
    41
    42
    43
    44
    45
    46
    47
    48
    49
    50
    51
    52
    53
    54
    55
    56
    57
    58
    59
    60
    61
    62
    63
    64
    65
    66
    67
    68
    69
    70
    71
    72
    73
    74
    75
    76
    77
    78
    79
    80
    81
    82
    83
    84
    85
    86
    87
    88
    89
    90
    91
    92
    93
    94
    95
    96
    97
    98
    99
   100
   101
   102
   103
   104
   105
   106
   107
   108
   109
   110
   111
   112
   113
   114
   115
   116
   117
   118
   119
   120
   121
   122
   123
   124
   125
   126
   127
   128
   129
   130
   131
   132
   133
   134
   135
   136
   137
   138
   139
   140
   141
   142
   143
   144
   145
   146
   147
   148
   149
   150
   151
   152
   153
   154
   155
   156
   157
   158
   159
   160
   161
   162
   163
   164
   165
   166
   167
   168
   169
   170
   171
   172
   173
   174
   175
   176
   177
   178
   179
   180
   181
   182
   183
   184
   185
   186
   187
   188
   189
   190
   191
   192
   193
   194
   195
   196
   197
   198
   199
   200
   201
   202
   203
   204
   205
   206
   207
   208
   209
   210
   211
   212

 
 
